test_sample.raw
0, 100.00, 33, 0, 0, 60.00     / PSS/E-33 RAW
Case Identification Data
Bus Data Section
1, 'BUS001  ', 138.0000, 1, 1, 1, 1, 1.0000, 0.0000
2, 'BUS002  ', 138.0000, 1, 1, 1, 1, 1.0000, 0.0000
3, 'BUS003  ', 138.0000, 1, 1, 1, 1, 1.0000, 0.0000
143261, 'BUS143261', 138.0000, 1, 1, 1, 1, 1.0000, 0.0000
143262, 'BUS143262', 138.0000, 1, 1, 1, 1, 1.0000, 0.0000
0 / END OF BUS DATA
Branch Data Section
1, 2, '1 ', 0.00100, 0.01000, 0.00000, 100.0, 100.0, 100.0
2, 3, '1 ', 0.00200, 0.02000, 0.00000, 100.0, 100.0, 100.0
143261, 143261, '1 ', 0.00150, 0.01500, 0.00000, 50.0, 50.0, 50.0
3, 1, '1 ', 0.00300, 0.03000, 0.00000, 100.0, 100.0, 100.0
143262, 143262, '2 ', 0.00250, 0.02500, 0.00000, 75.0, 75.0, 75.0
0 / END OF BRANCH DATA
